/*--------------------------------*- C++ -*----------------------------------*\
| =========                 |                                                 |
| \\      /  F ield         | OpenFOAM: The Open Source CFD Toolbox           |
|  \\    /   O peration     | Version:  2306                                  |
|   \\  /    A nd           | Website:  www.openfoam.com                      |
|    \\/     M anipulation  |                                                 |
\*---------------------------------------------------------------------------*/
FoamFile
{
    version     2.0;
    format      ascii;
    arch        "LSB;label=32;scalar=64";
    class       featureEdgeMesh;
    location    "constant/triSurface";
    object      nose.eMesh;
}
// * * * * * * * * * * * * * * * * * * * * * * * * * * * * * * * * * * * * * //


// points:

94
(
(3553.59 100 3539.79)
(3070.76 100 3539.79)
(3064.97 102.5 3328.08)
(3559.38 102.5 3328.08)
(3537.79 102.5 3591.69)
(3086.56 102.5 3591.69)
(3537.79 100 3591.69)
(3086.56 100 3591.69)
(3070.76 102.5 3539.79)
(3553.59 102.5 3539.79)
(3039.25 549.507 3054.71)
(3036.54 495.296 3105.91)
(3039.72 560.364 3043.59)
(3033.07 437.792 3153.39)
(3028.84 377.249 3196.93)
(3026.27 343.681 3218.55)
(3595.51 377.249 3196.93)
(3591.28 437.792 3153.39)
(3587.81 495.296 3105.91)
(3585.1 549.507 3054.71)
(3584.63 560.364 3043.59)
(3598.08 343.681 3218.55)
(3556.9 110.268 3526.62)
(3562.33 110.268 3328.08)
(3583.12 180.15 3302.05)
(3589.1 200.123 3293.62)
(3067.45 110.268 3526.62)
(3041.23 180.15 3302.05)
(3062.02 110.268 3328.08)
(3035.25 200.123 3293.62)
(3028.59 248.145 3271.42)
(3029.83 230.175 3280.05)
(3024.83 298.356 3245.16)
(3523.8 112.821 3669.41)
(3519.13 116.911 3694.2)
(3095.1 107.928 3639.75)
(3105.21 116.898 3694.13)
(3547.97 600.182 3000)
(3076.38 600.182 3000)
(3595.76 248.143 3271.42)
(3598.12 280.31 3254.97)
(3594.52 230.175 3280.05)
(3599.21 302.402 3242.9)
(3599.31 313.939 3236.33)
(3592.64 214.972 3287.05)
(3546.41 100 3565.96)
(3546.63 100 3565.21)
(3538.62 100 3589.48)
(3584.6 561.014 3042.91)
(3551.68 599.98 3000.23)
(3554.29 599.59 3000.68)
(3561.04 597.555 3003.02)
(3560.36 597.831 3002.71)
(3556.93 598.978 3001.39)
(3555.29 599.385 3000.92)
(3566.05 594.942 3006.01)
(3564.61 595.801 3005.03)
(3575.6 586.198 3015.84)
(3573.5 588.692 3013.06)
(3571.17 591.03 3010.44)
(3569.29 592.638 3008.62)
(3581.97 574.389 3028.76)
(3580.62 577.76 3025.11)
(3579.23 580.593 3022.02)
(3577.47 583.564 3018.76)
(3583.82 567.502 3036.11)
(3025.14 302.402 3242.9)
(3025.04 313.939 3236.33)
(3031.71 214.972 3287.05)
(3072.99 100.001 3548.44)
(3077.64 100 3564.96)
(3079.97 100 3572.57)
(3085.75 100 3589.53)
(3039.75 561.014 3042.91)
(3040.57 567.688 3035.91)
(3045.14 580.625 3021.99)
(3044.82 580.031 3022.64)
(3042.26 574.038 3029.14)
(3050.09 587.837 3014.01)
(3046.63 583.176 3019.19)
(3053.21 591.053 3010.41)
(3053.7 591.495 3009.91)
(3057.52 594.435 3006.58)
(3061.41 596.688 3004.02)
(3058.32 594.954 3005.99)
(3067.91 599.107 3001.24)
(3064.34 597.968 3002.55)
(3075.37 600.168 3000.02)
(3071.86 599.882 3000.35)
(3070.06 599.589 3000.68)
(3075.97 102.5 3559.26)
(3069.12 105.86 3533.28)
(3548.38 102.5 3559.26)
(3555.37 106.18 3532.73)
)


// edges:

98
(
(10 11)
(12 10)
(11 13)
(13 14)
(14 15)
(16 17)
(17 18)
(18 19)
(19 20)
(21 16)
(0 22)
(23 24)
(24 25)
(26 1)
(27 28)
(29 27)
(30 31)
(32 30)
(6 33)
(7 6)
(33 34)
(35 7)
(36 35)
(37 38)
(39 40)
(41 39)
(42 43)
(43 21)
(25 44)
(44 41)
(45 46)
(47 45)
(6 47)
(46 0)
(20 48)
(49 37)
(50 49)
(51 52)
(52 53)
(53 54)
(54 50)
(55 56)
(56 51)
(57 58)
(58 59)
(59 60)
(60 55)
(61 62)
(62 63)
(63 64)
(64 57)
(48 65)
(65 61)
(66 32)
(67 66)
(15 67)
(31 68)
(68 29)
(69 70)
(1 69)
(70 71)
(71 72)
(72 7)
(73 12)
(74 73)
(75 76)
(76 77)
(77 74)
(78 79)
(80 78)
(81 80)
(82 81)
(83 84)
(84 82)
(85 86)
(86 83)
(38 87)
(87 88)
(88 89)
(89 85)
(79 75)
(8 2)
(2 3)
(3 9)
(28 2)
(3 23)
(40 42)
(4 6)
(5 4)
(7 5)
(90 5)
(8 90)
(91 8)
(26 91)
(92 9)
(9 93)
(93 22)
(4 92)
)

// * * * * * * * * * * * * * * * * * * * * * * * * * * * * * * * * * * * * * //


// ************************************************************************* //
